Version 4
SHEET 1 888 680
WIRE 352 -16 160 -16
WIRE 160 16 160 -16
WIRE 352 112 352 -16
WIRE 160 128 160 96
WIRE 112 192 -16 192
WIRE -16 224 -16 192
WIRE 352 224 352 192
WIRE 160 272 160 224
WIRE -16 320 -16 304
FLAG 160 272 0
FLAG -16 320 0
FLAG 352 224 0
SYMBOL njf 112 128 R0
SYMATTR InstName J1
SYMATTR Value 2N3819
SYMBOL res 144 0 R0
SYMATTR InstName R1
SYMATTR Value {res}
SYMBOL voltage 352 96 R0
WINDOW 123 0 0 Left 0
WINDOW 39 0 0 Left 0
SYMATTR InstName V1
SYMATTR Value 10
SYMBOL voltage -16 320 R180
WINDOW 123 0 0 Left 0
WINDOW 39 0 0 Left 0
SYMATTR InstName V2
SYMATTR Value {vin}
TEXT 688 16 Left 2 !.param res 1030\n.param vin 0.665
TEXT -104 344 Left 2 !.op
