Version 4
SHEET 1 880 680
WIRE 400 -32 192 -32
WIRE 192 0 192 -32
WIRE 192 112 192 80
WIRE 400 112 400 -32
WIRE 144 192 -16 192
WIRE -16 224 -16 192
WIRE -16 336 -16 304
WIRE 192 336 192 208
WIRE 400 336 400 192
FLAG -16 336 0
FLAG 192 336 0
FLAG 400 336 0
SYMBOL nmos 144 112 R0
SYMATTR InstName M1
SYMATTR Value LND150h
SYMBOL voltage 400 96 R0
WINDOW 123 0 0 Left 0
WINDOW 39 0 0 Left 0
SYMATTR InstName V1
SYMATTR Value {vdd}
SYMBOL voltage -16 320 R180
WINDOW 0 24 96 Left 2
WINDOW 3 24 16 Left 2
WINDOW 123 0 0 Left 0
WINDOW 39 0 0 Left 0
SYMATTR InstName V2
SYMATTR Value {vgs}
SYMBOL res 176 -16 R0
SYMATTR InstName R1
SYMATTR Value {rd}
TEXT 544 -32 Left 2 !.param rd 8500\n.param vgs 0.3\n.param vdd 10
