Version 4
SHEET 1 880 680
WIRE 448 -80 192 -80
WIRE 192 -32 192 -80
WIRE 192 96 192 48
WIRE 192 112 192 96
WIRE 448 112 448 -80
WIRE 112 192 -64 192
WIRE 144 192 112 192
WIRE -64 240 -64 192
WIRE -64 368 -64 320
WIRE 192 368 192 208
WIRE 192 368 -64 368
WIRE 448 368 448 192
WIRE 448 368 192 368
WIRE 192 384 192 368
FLAG 192 384 0
FLAG 192 96 Vds
FLAG 112 192 Vgs
SYMBOL nmos 144 112 R0
SYMATTR InstName M1
SYMATTR Value 2N7000
SYMBOL voltage -64 224 R0
WINDOW 123 0 0 Left 0
WINDOW 39 0 0 Left 0
SYMATTR InstName V1
SYMATTR Value 1.6730762923
SYMBOL voltage 448 96 R0
WINDOW 123 0 0 Left 0
WINDOW 39 0 0 Left 0
SYMATTR InstName V2
SYMATTR Value 10
SYMBOL res 176 -48 R0
SYMATTR InstName RD
SYMATTR Value 5k
TEXT -96 408 Left 2 !.dc V1 -3 40 1m
